12

C -1.929168 -0.469568 -0.009604
C -1.696676 0.650158 -0.666440
F -1.602324 0.719205 -1.974693
F -1.529894 1.814345 -0.076689
S 1.861470 -0.154250 0.394101
O 3.281768 -0.075148 0.465920
O 1.114836 -1.359570 0.359991
O 1.314154 0.761366 -0.780239
F -2.021826 -0.530436 1.298001
F 1.310386 0.696625 1.625686
F -2.096609 -1.629019 -0.597577
H 1.881770 1.531662 -0.915898