12

C -0.629419 -1.319907 0.484640
C -0.139390 -0.089657 -0.309564
F -0.681196 -0.039993 -1.497096
F -0.655263 1.024241 0.436950
S 1.821231 -0.036467 -0.459145
O -0.105737 2.462507 -0.108291
O 2.011675 0.423679 -1.828701
O 2.026727 1.130072 0.624715
F -0.243538 -2.410433 -0.172111
F -0.078936 -1.321956 1.692966
F -1.948916 -1.329945 0.604923
H 1.438983 1.904584 0.424398