12

C -3.218527 -0.314523 0.468878
C 0.328086 -0.084554 -0.090038
F -0.178046 -0.469367 -1.253604
F -0.218931 1.057885 0.277826
S 2.177788 0.124526 -0.275606
O 2.659344 0.788329 0.893240
O 2.696281 -1.125525 -0.757726
O 2.196444 1.195932 -1.470740
F 0.103024 -1.009503 0.824666
F -3.686440 0.783171 0.982671
F -4.172744 -1.183103 0.619067
H 2.236578 0.741917 -2.322485