12

C -0.709015 0.280581 1.336234
C -0.058467 -0.051255 -0.038113
F -0.385948 -1.296568 -0.381185
F -0.519296 0.799425 -0.953941
S 1.817262 0.040839 -0.046608
O 2.282562 -0.513068 1.194661
O 2.232011 -0.422843 -1.330877
O 2.031849 1.627007 -0.036712
F -0.492209 -0.685765 2.209339
F -0.199297 1.423189 1.816388
F -2.016015 0.439216 1.178273
H 2.066986 1.957273 0.870832