12

C -1.697806 0.014704 0.981020
C -1.035671 0.334499 -0.370064
F -0.189980 -0.688817 -0.681104
F -1.970585 0.410442 -1.326379
S 2.506553 -0.229816 -0.532228
O 2.690992 -1.069992 0.610752
O 2.816251 -0.707838 -1.844754
O 2.038786 1.116984 -0.357983
F -2.386488 -1.118664 0.933954
F -0.757240 -0.090356 1.920258
F -2.522988 1.007763 1.314832
H -0.462554 1.262683 -0.320624