12

C 2.553231 0.085581 -2.565698
C 2.564549 -0.581436 -1.224070
F -0.448054 0.954685 0.836589
F 2.832075 -1.894803 -1.253497
S 1.831056 -0.057149 0.121525
O 0.187892 0.148928 -0.197917
O 1.983360 -0.836006 1.309082
O 2.213877 1.467836 0.258815
F 2.120926 1.346698 -2.489242
F 3.782563 0.094595 -3.091406
F 1.766047 -0.570702 -3.428019
H 1.460954 1.992454 0.577696