12
2003846667223680600001 Transition State - IRC Forward Point 0
C    -0.859601     0.179803     0.914686
C    -0.732473     0.025801    -0.660981
F    -1.203361    -1.022726    -1.279070
F    -1.106675     1.119392    -1.279771
S     1.126837    -0.074621    -0.269210
O     0.482052     0.427449     1.217635
O     2.424002    -0.588471    -0.662218
O     1.379164     1.498178    -0.736054
F     0.649545    -1.662012     0.278518
F    -1.578159     1.234404     1.277087
F    -1.380373    -0.881653     1.506520
H     2.271824     1.561420    -1.092047
