12
2003846667223680600001 Transition State - IRC Forward Point 0
C    -1.295749    -0.566300     0.535097
C    -0.261671     0.255864    -0.267890
F    -0.585423     0.315218    -1.536706
F    -0.393460     1.590625     0.243315
S     1.586920    -0.313591    -0.024431
O     0.998113     2.422158     0.468334
O     1.576635    -1.676948    -0.533469
O     2.126395     0.622707    -1.245473
F    -1.410765    -1.769406     0.001707
F    -0.880126    -0.675553     1.794768
F    -2.483665     0.029197     0.522641
H     2.057310     1.546956    -0.936857
