10

C 1.546349 -0.012508 -0.037905
O 2.164079 -1.003679 -0.255251
C 0.002294 0.037689 0.024649
C -0.610303 0.791141 -1.140811
F -0.486878 2.095604 -1.091445
F -0.261158 0.314552 -2.316988
F -0.460470 -1.214522 0.004756
F -0.380789 0.637989 1.163915
O 2.048358 1.207342 0.144474
H 3.011720 1.154338 0.076335