10

C 1.536354 0.048263 0.004518
O 2.220768 -0.864039 0.341402
C -0.015388 0.010035 -0.001895
C -0.596631 0.337945 1.390408
F -1.917393 0.337829 1.335032
F -0.195950 -0.558711 2.275574
F -0.176741 1.539907 1.769198
F -0.496032 0.906589 -0.875128
F -0.409690 -1.211002 -0.353044
O 2.002965 1.216520 -0.387167