11

C 2.539678 -0.791738 -0.642854
O 2.560350 -1.942595 -0.687374
C -0.589458 0.670557 -0.562894
C -0.853070 0.105531 0.835273
F -1.835305 -0.780984 0.819010
F 0.250073 -0.488339 1.290971
F -1.174941 1.090952 1.665670
F -1.725800 1.204386 -1.031336
F -0.226520 -0.348984 -1.364368
O 2.525057 0.364541 -0.595280
H 0.201397 1.420116 -0.540490