11

C 1.396474 0.017311 -0.022163
O 0.000810 -0.004998 -0.034494
C 0.651000 -0.521311 -1.159678
C 0.390927 0.208098 -2.466874
F -0.840086 -0.023523 -2.896201
F 0.528929 1.528547 -2.292277
F 1.249125 -0.180204 -3.398057
F 1.959388 -0.857775 0.795751
F 0.542980 -1.838380 -1.340036
O 2.038344 1.191650 0.083609
H 1.588621 1.860892 -0.443230