11

C 1.072268 -0.250060 2.824279
C 1.898787 -0.561429 1.597428
F 3.176036 -0.757546 1.792916
S 1.419943 -0.000193 0.000338
O 2.213427 -0.686123 -0.944167
O -0.000094 -0.000265 0.000886
O 1.922877 1.496955 -0.001014
F 0.736228 1.050116 2.849139
F -0.048608 -0.953289 2.846405
F 1.770456 -0.515375 3.917511
H 1.234572 2.074555 0.360325