12

C -2.962871 -0.873971 0.738861
C 0.295696 0.158923 0.126222
F -0.570115 0.677601 -0.734328
F 0.091686 0.673023 1.320603
S 2.005420 0.535322 -0.444040
O 2.884174 0.174945 0.600266
O 2.113540 0.043072 -1.770822
O 1.922661 2.105911 -0.478712
F 0.145315 -1.151707 0.167333
F -4.074607 -1.234219 1.289784
F -2.958880 -1.468281 -0.409665
H 1.652699 2.404505 -1.359030