12

C 0.920147 -1.864770 -0.590107
C 1.653798 -0.777113 -0.690381
F 1.658673 0.171088 0.232879
F 2.450322 -0.510666 -1.693682
S -1.370458 1.358175 0.878901
O -2.596824 2.038471 0.825446
O -0.958892 0.557238 1.964115
O -0.250774 2.366597 0.489330
F -1.307097 0.440785 -0.376690
F 0.913797 -2.805920 -1.499129
F 0.129652 -2.108543 0.420610
H 0.621105 1.974815 0.651830